[General]
network = pesce
cmdenv-runs-to-execute = 
sim-time-limit = 1000s
**.source.interArrivalTime = exponential(0.3s)
**.queue.serviceTime = exponential(3s)
**.queue1.serviceTime = exponential(0.5s)
**.sink.keepJobs = false
**.queue.fifo = true
**.queue1.fifo = true
**.myQueue.serviceTime = 0.5s
**.myQueue.fifo = true
**.myQueue.capacitySTOP = 5
**.myQueue.capacityRESTART = 3

