[General]
network = Network
repeat = 2
sim-time-limit = 1000ms
**.source.interArrivalTime = exponential(0.1ms)
**.ActiveQueue1.serviceTime = 0.2ms
**.ActiveQueue2.serviceTime = 0.2ms
**.ActiveQueue1.fifo = true
**.ActiveQueue2.fifo = true
**.myQueue.capacity = 100
**.myQueue.fifo = true
**.myQueue.capacitySTOP = 5
**.myQueue.capacityRESTART = 3
**.myQueue.serviceTime = 0.2ms
